18

N 0.953138 -0.922829 0.762574
H 0.569612 -0.906667 1.703227
C 0.594345 0.155674 -0.182700
H 0.711900 -0.261475 -1.191823
C 1.579664 1.342600 -0.012979
O 1.239402 2.360561 0.594785
C -0.875657 0.611341 0.020657
S -1.768941 0.648840 -1.589622
C -3.179668 1.457110 -1.091907
N -4.172711 2.019220 -0.770274
H -1.410088 -0.050622 0.704577
H -0.894670 1.616768 0.447028
C 1.943282 -1.827252 0.499487
O 2.612405 -1.820150 -0.539973
N 2.809091 1.176919 -0.569540
H 2.092323 -2.574437 1.295144
H 3.075402 0.291163 -0.990042
H 3.462971 1.942534 -0.480020
