18

N 1.017643 -0.899845 0.834758
H 0.673561 -0.857822 1.789589
C 0.597181 0.130452 -0.137456
H 0.682313 -0.324143 -1.134100
C 1.538995 1.355212 -0.053225
O 1.163845 2.392013 0.498663
C -0.861930 0.568730 0.109910
S -2.013381 -0.756925 -0.440972
C -3.483769 0.077648 -0.264691
N -4.501600 0.663747 -0.105239
H -1.032371 0.785625 1.166224
H -1.071538 1.476693 -0.460381
C 1.979142 -1.825043 0.542514
O 2.571852 -1.863245 -0.541583
N 2.766350 1.196009 -0.616458
H 2.181333 -2.539629 1.355961
H 3.044271 0.302225 -1.012304
H 3.398714 1.983734 -0.578746
