18

N 0.961514 -0.941115 0.767274
H 0.580296 -0.924487 1.708251
C 0.596656 0.132596 -0.178413
H 0.706992 -0.285780 -1.188042
C 1.564864 1.331037 -0.010041
O 1.201892 2.338192 0.598776
C -0.861132 0.596525 0.025857
S -2.031095 -0.821817 -0.100073
C -3.490766 0.048986 -0.143570
N -4.521345 0.633922 -0.175552
H -0.975809 1.075759 1.000799
H -1.116844 1.325369 -0.746990
C 1.947954 -1.849375 0.521185
O 1.724251 -3.033120 0.269488
N 2.800564 1.198876 -0.565166
H 2.968058 -1.439105 0.590049
H 3.062565 0.397066 -1.126088
H 3.428184 1.982971 -0.448343
