18

N 0.667073 1.024039 -0.434040
H -0.019600 1.046009 -1.181434
C 0.613644 -0.059192 0.576968
H 1.095194 0.324148 1.487757
C 1.405725 -1.281407 0.044320
O 0.829507 -2.353164 -0.156904
C -0.831752 -0.444275 0.975322
S -2.007928 -0.487826 -0.452013
C -3.047056 0.774074 0.022055
N -3.782772 1.649194 0.334118
H -0.821325 -1.431528 1.441931
H -1.224500 0.279759 1.693908
C 1.689211 1.927150 -0.497235
O 2.665231 1.895104 0.260640
N 2.738058 -1.101569 -0.162019
H 1.571654 2.689388 -1.283568
H 3.199429 -0.235229 0.099667
H 3.259188 -1.894993 -0.509518
