18

N 1.650405 -0.551319 1.178620
H 1.724922 -0.121230 2.095841
C 0.490182 -0.236856 0.316760
H 0.390750 -1.052938 -0.412204
C 0.765313 1.089476 -0.440376
O 0.313986 2.165029 -0.044685
C -0.799188 -0.165640 1.185242
S -2.195510 0.894017 0.576946
C -2.821326 -0.205097 -0.560775
N -3.220881 -0.970617 -1.374148
H -1.205247 -1.174517 1.302190
H -0.529785 0.236151 2.165046
C 2.746162 -1.211581 0.698684
O 2.842683 -1.606145 -0.468529
N 1.558100 0.972320 -1.539557
H 3.540347 -1.369217 1.445687
H 1.996323 0.085633 -1.772235
H 1.745776 1.816553 -2.062547
