18

N 0.927455 -0.863640 0.755243
H 0.527992 -0.822717 1.688466
C 0.621144 0.217112 -0.209549
H 0.734333 -0.204806 -1.218115
C 1.674797 1.344145 -0.028231
O 1.405200 2.381800 0.573704
C -0.845901 0.699565 -0.047000
S -1.264379 2.434060 -0.554136
C -2.835462 2.483746 0.099538
N -3.932073 2.534555 0.549750
H -1.493485 0.041514 -0.633319
H -1.114920 0.635094 1.010714
C 1.887288 -1.808756 0.524064
O 2.579033 -1.842682 -0.500070
N 2.899371 1.103551 -0.568564
H 1.994268 -2.546225 1.335443
H 3.124698 0.201107 -0.976946
H 3.595641 1.828977 -0.465289
