18

N -0.263687 0.880111 0.553138
H 0.304732 0.818041 1.392986
C -0.545080 -0.329586 -0.246931
H -0.655035 -0.006587 -1.291303
C -1.875369 -0.970166 0.218265
O -1.870084 -2.035402 0.840407
C 0.595528 -1.374973 -0.154769
S 2.179547 -0.771877 -0.886168
C 2.663711 0.377061 0.271931
N 3.002906 1.147254 1.109419
H 0.724276 -1.676935 0.886790
H 0.301421 -2.249406 -0.740914
C -0.744920 2.111627 0.211875
O -1.512793 2.293795 -0.740254
N -3.007373 -0.293132 -0.112560
H -0.394993 2.929665 0.860769
H -2.957023 0.594374 -0.605218
H -3.888742 -0.692882 0.179265
