18

N 1.120181 -0.816795 0.831606
H 1.215678 -0.573673 1.813436
C 0.706348 0.212781 -0.143891
H 0.869061 -0.207955 -1.145340
C 1.573992 1.482606 0.018317
O 1.118747 2.487889 0.566456
C -0.782047 0.580571 0.028058
S -1.854295 -0.900344 -0.200562
C -3.368597 -0.127137 -0.175221
N -4.436841 0.387147 -0.161170
H -0.962247 1.003734 1.018668
H -1.058996 1.323395 -0.723779
C 1.573245 -2.049462 0.456280
O 1.667220 -2.402153 -0.721618
N 2.838150 1.396831 -0.476733
H 1.845708 -2.707059 1.296955
H 3.164937 0.555850 -0.939089
H 3.420432 2.218552 -0.388096
