18

N 0.636960 0.694739 -1.050520
H 0.461229 0.449171 -2.020164
C 0.403169 -0.302283 0.014080
H 0.098604 0.246191 0.915687
C 1.716972 -1.063173 0.311388
O 1.889176 -2.202986 -0.128820
C -0.698837 -1.316243 -0.380783
S -2.312587 -0.497437 -0.734078
C -2.477879 0.479199 0.648025
N -2.592784 1.128399 1.632332
H -0.405972 -1.852794 -1.286565
H -0.791631 -2.036333 0.435072
C 1.106224 1.948852 -0.781982
O 1.430944 2.321462 0.350950
N 2.627677 -0.393785 1.066880
H 1.177010 2.603278 -1.665196
H 2.465869 0.574546 1.330132
H 3.494290 -0.868212 1.280452
