18

N 0.942112 -1.005285 0.767196
H 0.535059 -1.003222 1.699174
C 0.613642 0.104627 -0.155214
H 0.750232 -0.303712 -1.165953
C 1.555401 1.326409 0.014500
O 1.598240 2.166281 -0.884635
C -0.835074 0.585776 0.045909
S -2.032791 -0.806054 -0.104777
C -3.475343 0.091736 -0.152295
N -4.494399 0.695545 -0.187620
H -0.957793 1.055765 1.024840
H -1.065280 1.328690 -0.723090
C 1.916507 -1.931948 0.520186
O 2.622214 -1.937867 -0.487728
N 2.304250 1.432139 1.147121
H 2.016423 -2.690737 1.313396
H 2.409416 0.670726 1.803713
H 2.912583 2.238430 1.192877
