18

N 1.425694 -0.855009 1.191726
H 0.903273 -0.251058 1.795405
C 0.498183 0.019714 -0.028582
H 0.226360 -0.550134 -1.191004
C 1.564015 1.273820 -0.080944
O 1.186503 2.364942 0.487492
C -0.925837 0.561333 0.060525
S -1.985662 -0.864394 -0.090172
C -3.430967 -0.010137 -0.090237
N -4.480108 0.539189 -0.051272
H -0.944979 1.127641 0.974921
H -1.180503 1.249083 -0.797427
C 2.197684 -1.747231 0.299948
O 3.302612 -1.524902 0.192360
N 2.776217 1.204856 -0.635374
H 0.997277 -2.887204 0.248615
H 3.064719 0.292049 -0.912873
H 3.453902 1.920002 -0.418333
