18

N 1.319429 -0.816867 0.756675
H 1.911415 -0.541669 1.535476
C 0.822140 0.220227 -0.175951
H 1.036232 -0.142215 -1.189966
C 1.570477 1.556481 0.065831
O 1.024390 2.492220 0.651127
C -0.701953 0.472329 -0.020805
S -1.788905 -0.987649 -0.309730
C -3.285809 -0.179931 -0.250751
N -4.318343 0.404318 -0.238960
H -0.901908 0.837121 0.989969
H -0.993446 1.229010 -0.754313
C 1.204500 -2.163097 0.552783
O 0.666055 -2.660361 -0.436586
N 2.845463 1.609596 -0.406237
H 1.638295 -2.775946 1.359225
H 3.258040 0.831919 -0.907372
H 3.343180 2.478846 -0.268142
