18

N 0.997551 -0.898895 0.788069
H 0.645865 -0.817827 1.737219
C 0.592918 0.127615 -0.192780
H 0.675452 -0.332836 -1.186582
C 1.546736 1.351742 -0.120694
O 1.165182 2.392052 0.421499
C -0.858666 0.595750 0.045742
S -2.017801 -0.829177 -0.079417
C -3.492767 0.011768 -0.002179
N -4.511978 0.615880 0.022298
H -0.960697 1.059755 1.029254
H -1.131643 1.332299 -0.713650
C 1.951126 -1.834805 0.510413
O 3.098772 -1.567369 0.141255
N 2.780532 1.211671 -0.671309
H 1.590519 -2.869420 0.622308
H 3.196740 0.292564 -0.776151
H 3.381531 2.023310 -0.622850
