18

N 0.957420 -0.915136 0.733238
H 0.585642 -0.878997 1.678404
C 0.565369 0.148059 -0.219680
H 0.672700 -0.269233 -1.230272
C 1.550262 1.355359 -0.072455
O 2.762928 1.166377 -0.068411
C -0.903256 0.561954 0.002838
S -2.049694 -0.880354 -0.103576
C -3.515860 -0.019942 -0.117752
N -4.544221 0.568442 -0.128428
H -1.024686 1.036589 0.980681
H -1.208533 1.280404 -0.762482
C 1.946069 -1.833234 0.503342
O 2.614689 -1.906441 -0.529046
N 1.056227 2.620890 0.059373
H 2.084510 -2.538675 1.339663
H 0.087642 2.888382 -0.052600
H 1.761491 3.339658 0.152060
