18

N 0.843364 0.789480 -1.107836
H 0.492232 0.490796 -2.013314
C 0.546450 -0.011756 0.097317
H 0.487974 0.682242 0.947133
C 1.697440 -1.016993 0.346984
O 1.563351 -2.204970 0.043994
C -0.785040 -0.781680 -0.036834
S -2.175561 0.394057 -0.312684
C -3.360239 -0.331400 0.667392
N -4.162989 -0.832414 1.381146
H -0.755755 -1.466731 -0.887121
H -0.924332 -1.375812 0.869082
C 1.601300 1.924679 -1.056141
O 2.145307 2.329015 -0.022194
N 2.823358 -0.497734 0.904866
H 1.692336 2.450683 -2.019686
H 2.913033 0.504002 1.050760
H 3.588482 -1.134053 1.082315
