18

N 0.932966 -0.961044 0.755762
H 0.530262 -0.958501 1.689075
C 0.579946 0.145154 -0.160733
H 0.707268 -0.227640 -1.187026
C 1.577901 1.331100 0.030727
O 2.752409 1.202659 -0.299020
C -0.889593 0.562265 0.047640
S -2.047815 -0.862120 -0.141837
C -3.503778 0.014872 -0.171588
N -4.525421 0.614464 -0.193785
H -1.053840 1.003688 1.033349
H -1.149468 1.313404 -0.704345
C 1.905633 -1.896014 0.527758
O 2.617265 -1.948698 -0.474991
N 1.142152 2.506183 0.571018
H 1.993421 -2.633262 1.343367
H 0.183225 2.734916 0.794961
H 1.856869 3.215474 0.664269
