18

N 0.959931 -0.931184 0.761515
H 0.584719 -0.917083 1.705471
C 0.590834 0.147056 -0.179991
H 0.698473 -0.269240 -1.191440
C 1.564989 1.337142 -0.006311
O 1.207124 2.345635 0.607266
C -0.864364 0.617488 0.026442
S -2.027517 -0.807749 -0.107741
C -2.769744 -0.442812 -1.594028
N -3.300200 -0.208002 -2.627447
H -0.979878 1.094915 1.001610
H -1.106108 1.347879 -0.749423
C 1.950297 -1.832466 0.489512
O 2.610460 -1.822806 -0.555946
N 2.795388 1.186590 -0.564332
H 2.107105 -2.580783 1.282619
H 3.066554 0.304720 -0.990195
H 3.445337 1.954801 -0.468380
