18

N 1.290275 0.884623 -0.317914
H 1.756561 0.980570 -1.212540
C 0.649103 -0.323011 0.239430
H 0.496474 -0.170888 1.315263
C 1.548553 -1.555947 -0.014702
O 2.151645 -1.670808 -1.081844
C -0.715013 -0.593419 -0.424780
S -1.830589 0.867501 -0.235953
C -3.304639 0.047460 -0.013384
N -4.312421 -0.545693 0.182157
H -0.580087 -0.789122 -1.492091
H -1.196726 -1.457993 0.038824
C 1.667281 1.912968 0.499241
O 1.526622 3.098674 0.196395
N 1.564399 -2.499465 0.965591
H 2.132909 1.600407 1.448605
H 1.075250 -2.379001 1.844247
H 2.140215 -3.312540 0.793060
