18

N 0.942990 -0.968581 0.762429
H 0.545559 -0.963161 1.697954
C 0.596365 0.128235 -0.164894
H 0.722976 -0.272578 -1.180578
C 1.565454 1.329640 0.000837
O 2.427757 1.548542 -0.845714
C -0.863241 0.588672 0.038419
S -2.039632 -0.823081 -0.114872
C -3.490447 0.061083 -0.165242
N -4.511962 0.660245 -0.202111
H -1.009769 1.058415 1.011641
H -1.105840 1.328749 -0.729140
C 1.914855 -1.903340 0.536733
O 2.623402 -1.945230 -0.467684
N 1.424822 2.113837 1.107898
H 2.009241 -2.641249 1.350599
H 0.892240 1.835956 1.921768
H 2.073529 2.887347 1.165657
