18

N -2.137611 0.486402 -0.213250
H -2.476917 1.442478 -0.266078
C -0.775815 0.231391 0.340950
H -0.893287 0.009211 1.406949
C 0.063364 1.520992 0.127668
O -0.127171 2.236013 -0.857131
C -0.096890 -0.963044 -0.381340
S 1.408746 -1.520637 0.518210
C 2.587560 -0.541506 -0.220470
N 3.436729 0.123420 -0.711827
H -0.774400 -1.818772 -0.367295
H 0.132048 -0.742810 -1.425878
C -3.078683 -0.446578 -0.556045
O -2.902310 -1.668032 -0.536569
N 0.986499 1.797897 1.087192
H -4.039361 -0.000982 -0.862111
H 1.151427 1.173443 1.867295
H 1.573083 2.605382 0.926571
