18

N 0.945702 -0.994568 0.768981
H 0.542921 -0.993754 1.702788
C 0.611840 0.109424 -0.157026
H 0.747330 -0.301516 -1.167130
C 1.554114 1.328690 0.004987
O 1.881110 1.974291 -0.989562
C -0.837557 0.587777 0.043401
S -2.033860 -0.806426 -0.101195
C -3.475911 0.092011 -0.150717
N -4.493618 0.697872 -0.187209
H -0.963112 1.062420 1.019598
H -1.070865 1.327374 -0.727883
C 1.920688 -1.921737 0.527019
O 2.626204 -1.935730 -0.480888
N 1.987483 1.637348 1.259291
H 2.021658 -2.674859 1.325667
H 1.888387 1.001202 2.038935
H 2.609486 2.432280 1.318446
