18

N 0.949775 -0.927727 0.763487
H 0.570445 -0.912900 1.705632
C 0.594636 0.152011 -0.181530
H 0.707726 -0.267339 -1.190391
C 1.570599 1.343712 -0.013403
O 1.218115 2.357418 0.594030
C -0.868025 0.619429 0.030823
S -1.989526 -0.326520 -1.080191
C -3.408753 0.584241 -0.865473
N -4.411903 1.201768 -0.733982
H -1.177060 0.478711 1.067822
H -0.948157 1.682455 -0.207477
C 1.936771 -1.833906 0.495159
O 2.599606 -1.826457 -0.548411
N 2.800453 1.186371 -0.571010
H 2.085684 -2.585059 1.287018
H 3.070361 0.301385 -0.991021
H 3.451553 1.954206 -0.479883
