18

N 0.958095 -0.931219 0.767684
H 0.574478 -0.907262 1.708109
C 0.601547 0.144922 -0.179951
H 1.014479 -0.146688 -1.155030
C 1.238970 1.477845 0.272480
O 0.559450 2.341393 0.830933
C -0.929588 0.308615 -0.287061
S -1.726906 -1.286117 -0.749616
C -3.292311 -0.710613 -1.079111
N -4.391898 -0.335962 -1.315216
H -1.336242 0.658084 0.664694
H -1.151750 1.047553 -1.060666
C 1.948609 -1.833117 0.502923
O 2.605912 -1.819450 -0.542037
N 2.566925 1.604468 0.005502
H 2.102900 -2.583810 1.293916
H 3.080588 0.854584 -0.447146
H 3.012641 2.468174 0.283492
