18

N -0.342685 0.988764 0.480799
H 0.253360 0.979086 1.304192
C -0.580460 -0.261595 -0.272411
H -0.738889 0.018327 -1.323072
C -1.857926 -0.963715 0.247213
O -1.773854 -2.004142 0.904206
C 0.622013 -1.225554 -0.173780
S 2.096889 -0.477198 -0.983940
C 2.911606 0.046767 0.414175
N 3.433601 0.445219 1.401646
H 0.800826 -1.485916 0.871552
H 0.392684 -2.145524 -0.716411
C -0.902963 2.178372 0.113077
O -1.706817 2.285284 -0.820573
N -3.035657 -0.366588 -0.077832
H -0.582066 3.037200 0.723447
H -3.049601 0.506704 -0.597527
H -3.884464 -0.807667 0.248930
