18

N 0.920536 -0.824115 0.758057
H 0.523651 -0.770681 1.692033
C 0.634795 0.266308 -0.204521
H 0.732300 -0.147004 -1.219032
C 1.737657 1.349096 -0.031101
O 1.536847 2.398164 0.575850
C -0.835726 0.756269 -0.039275
S -1.230176 2.479782 0.518308
C -2.901232 2.236545 0.741395
N -4.066585 2.081930 0.901224
H -1.324910 0.641848 -1.011033
H -1.328577 0.125559 0.706240
C 1.853803 -1.795627 0.527274
O 2.543081 -1.852538 -0.497642
N 2.943890 1.056942 -0.588015
H 1.942525 -2.532313 1.341578
H 3.129310 0.145561 -0.996313
H 3.673111 1.749875 -0.488827
