18

N 0.956001 -0.935413 0.759500
H 0.572724 -0.917407 1.700267
C 0.596021 0.142159 -0.185948
H 0.711857 -0.277126 -1.194690
C 1.558989 1.341829 -0.013114
O 1.193117 2.350709 0.594275
C -0.861101 0.606046 0.024461
S -2.023976 -0.816391 -0.101835
C -3.491084 0.040759 -0.148919
N -4.528336 0.613081 -0.183685
H -0.974511 1.080969 1.001628
H -1.112071 1.333440 -0.751321
C 1.947762 -1.836837 0.493814
O 2.609896 -1.827135 -0.550247
N 2.791864 1.196676 -0.567385
H 2.098814 -2.587254 1.285831
H 3.072579 0.313240 -0.983721
H 3.436254 1.969555 -0.471213
