18

N 0.921185 -1.135649 0.417373
H 0.157886 -1.666592 0.829325
C 0.541163 0.064972 -0.377310
H 0.539856 -0.250735 -1.427393
C 1.558636 1.237391 -0.195161
O 1.254177 2.201562 0.512709
C -0.858527 0.586452 0.033011
S -2.141370 -0.711178 -0.205158
C -3.539453 0.203811 0.104121
N -4.532255 0.815308 0.314311
H -0.856013 0.903166 1.078538
H -1.122433 1.443618 -0.591059
C 2.137542 -1.588095 0.856492
O 3.233927 -1.061116 0.658733
N 2.753038 1.152928 -0.836158
H 2.049182 -2.526793 1.429368
H 3.190224 0.249141 -0.951930
H 3.363292 1.947547 -0.699549
