18

N 1.591157 -0.619174 1.133139
H 1.703563 -0.262322 2.077527
C 0.467648 -0.138193 0.303189
H 0.297142 -0.892851 -0.477113
C 0.846500 1.207697 -0.362269
O 0.474549 2.277380 0.127572
C -0.799769 0.006075 1.176341
S -2.213110 0.808243 0.289597
C -2.734915 -0.564028 -0.569420
N -3.105040 -1.539662 -1.132770
H -1.137066 -0.971898 1.529651
H -0.566838 0.626917 2.044945
C 2.619028 -1.345664 0.601696
O 2.677161 -1.665060 -0.590631
N 1.621251 1.110813 -1.475702
H 3.394667 -1.629712 1.330574
H 1.982186 0.210050 -1.777060
H 1.873790 1.973070 -1.938543
