6

O            0.679025999809     0.030888310662    -0.053602224254
C           -0.715768915700     0.017966343763     0.040007753701
H           -1.160885305848    -0.721499030891    -0.621290891062
H           -1.065600082602     0.995945533465    -0.256994297475
H           -1.053512209854    -0.173740965085     1.055588229539
H            1.025900081014    -0.804847619937     0.197037686686
