6

O            0.675957109406     0.017760605680    -0.087381273982
C           -0.713129321928     0.029175686057     0.069099569715
H           -1.073251296735     0.962781071031    -0.337876319137
H           -1.004986782077    -0.024784301446     1.115065507348
H           -1.189894262188    -0.786621580370    -0.468816572996
H            1.031311150605    -0.780638785424     0.255674875108
