6

O            0.681301541502     0.002325965574     0.029442385076
C           -0.716031350407     0.040407848417     0.000372063835
H           -1.098069545316     0.181246841169    -1.007794769908
H           -1.026108616295     0.881420746228     0.603368428329
H           -1.156277627561    -0.862029088883     0.417439578761
H            0.993368538993    -0.718682588584    -0.484715354424
