6

O            0.681118572470     0.030505894495     0.006062326037
C           -0.716740086925     0.016153282258     0.015752980915
H           -1.043536892634     0.950559283636     0.448300657404
H           -1.110847510167    -0.798018860218     0.619069261639
H           -1.129592336248    -0.061069337022    -0.987134328238
H            1.008232144477    -0.767956134034    -0.364017149302
