6

O            0.679836740561     0.022604537194    -0.047087569784
C           -0.715050376624     0.029152827782     0.045690198828
H           -1.061942482104    -0.389466852905     0.987295521463
H           -1.179612151553    -0.517355022421    -0.771448865672
H           -1.034554439426     1.059716717380    -0.007871115678
H            1.000588990036    -0.858762976971    -0.004687007027
