ModifiedRes.pdb
 OpenBabel12311908493D

 18 17  0  0  1  0  0  0  0  0999 V2000
    5.0300   11.6080   13.4860 N   0  0  0  0  0  0  0  0  0  0  0  0
    4.3380   10.9450   13.2010 H   0  0  0  0  0  0  0  0  0  0  0  0
    6.3850   11.1360   13.5860 C   0  0  2  0  0  0  0  0  0  0  0  0
    6.7180   11.6230   14.3930 H   0  0  0  0  0  0  0  0  0  0  0  0
    7.2090   11.5240   12.3930 C   0  0  0  0  0  0  0  0  0  0  0  0
    8.4380   11.5130   12.4560 O   0  0  0  0  0  0  0  0  0  0  0  0
    5.7620    9.4960   13.0450 C   0  0  0  0  0  0  0  0  0  0  0  0
    4.1690    9.0880   13.7920 S   0  0  0  0  0  0  0  0  0  0  0  0
    4.0600    7.5280   12.9760 C   0  0  0  0  0  0  0  0  0  0  0  0
    3.9790    6.5030   12.4460 N   0  0  0  0  0  0  0  0  0  0  0  0
    5.6470    9.5580   11.9830 H   0  0  0  0  0  0  0  0  0  0  0  0
    6.4670    8.7320   13.2990 H   0  0  0  0  0  0  0  0  0  0  0  0
    4.6090   12.8590   13.7410 C   0  0  0  0  0  0  0  0  0  0  0  0
    5.3320   13.7140   14.2560 O   0  0  0  0  0  0  0  0  0  0  0  0
    6.5620   11.7680   11.2380 N   0  0  0  0  0  0  0  0  0  0  0  0
    3.6397   13.1141   13.4952 H   0  0  0  0  0  0  0  0  0  0  0  0
    5.5777   11.7707   11.2162 H   0  0  0  0  0  0  0  0  0  0  0  0
    7.0731   11.9437   10.4151 H   0  0  0  0  0  0  0  0  0  0  0  0
  1 13  1  0  0  0  0
  1  2  1  0  0  0  0
  1  3  1  0  0  0  0
  3  4  1  1  0  0  0
  3  5  1  0  0  0  0
  3  7  1  0  0  0  0
  5  6  2  0  0  0  0
  5 15  1  0  0  0  0
  7  8  1  0  0  0  0
  7 11  1  0  0  0  0
  7 12  1  0  0  0  0
  8  9  1  0  0  0  0
  9 10  3  0  0  0  0
 13 14  2  0  0  0  0
 13 16  1  0  0  0  0
 15 17  1  0  0  0  0
 15 18  1  0  0  0  0
M  END
